test/testfiles/quotedzero.raw
 0    100.00


    1 'ABC     ' 345.00 1      .000      .000   1   1 1.00000      .0000     1
 8480 'ABCDEFGH' 345.00 1      .000      .000   1   8 1.00000      .0000     1
 0
    7  1 1   1   1      .000      .000      .000      .000      .000      .000   1
 8478  2 1   1   8      .000      .000      .000      .000      .000      .000   1
 0
   24 1      .00      .00      .00      .00 1.00000     0    100.0  .00000 1.00000  .00000  .00000 1.00000 1 100.0     .00      .0  1   1.0  0   1.0  0   1.0  0   1.0
 9008 1      .00      .00      .00      .00 1.00000     0    100.0  .00000 1.00000  .00000  .00000 1.00000 1 100.0     .00      .0  1   1.0  0   1.0  0   1.0  0   1.0
 0
    1   1452 1    .00008    .00127   .02332  1867.60  2307.00  2602.00  .00000     .000    .00000    .00000 1    .0  1   1.0  0   1.0  0   1.0  0   1.0
 8151   8465 1    .00682    .03967   .01112   251.20   251.20   268.20  .00000     .000    .00000    .00000 1    .0  1   1.0  0   1.0  0   1.0  0   1.0
 0
    1     4     0 1  1 1 1    .00000    .00000 2 '        ' 1  1   1.0  0   1.0  0   1.0  0   1.0
                 .00009    .01801 100.0
                1.00000    .0     .000   800.00   956.00   956.00  0      0   .00000   .00000   .00000   .00000  33 0   .00000   .00000
                1.00000    .0
 8462  8463     0 1  1 1 1    .00000    .00000 2 '        ' 1  1   1.0  0   1.0  0   1.0  0   1.0
                 .00197    .07425 100.0
                1.02174    .0     .000   130.00   130.00   130.00  1   8462  1.12174   .92174  1.01430   .99430  33 0   .00000   .00000
                1.00000    .0
 0
    1  5727       .000      5.000 'XYZ     '
 0
 0
 '0'
    2 1 1.06549 1.00549     0 100.0 ' '    100.00  1   100.00
 8460 1 1.05614  .99614     0 100.0 ' '     28.80  1    14.40  1    14.40
 0
 0
 0
 0
    1 'FIRST   '
   99 'ISOLATED'
 0
 0
    1 'OWNER1  '
 0
 0
